xflr5 v6.57

 Calculated polar for: GNEW5BP93B-aileron

 1 1 Reynolds number fixed          Mach number fixed         

 xtrf =   1.000 (top)        1.000 (bottom)
 Mach =   0.233     Re =     2.350 e 6     Ncrit =   9.000

  alpha     CL        CD       CDp       Cm    Top Xtr Bot Xtr   Cpmin    Chinge    XCp    
 ------- -------- --------- --------- -------- ------- ------- -------- --------- ---------
 -10.000   0.1994   0.00939   0.00462  -0.2695  0.7688  0.0092  -4.3603   0.0090   0.0327   0.1324   1.6608
  -9.750   0.2356   0.00912   0.00434  -0.2714  0.7656  0.0119  -4.0934   0.0092   0.0336   0.1349   1.4513
  -9.500   0.2697   0.00895   0.00414  -0.2729  0.7600  0.0149  -3.8434   0.0093   0.0342   0.1369   1.3036
  -9.250   0.3030   0.00884   0.00399  -0.2741  0.7541  0.0171  -3.6002   0.0094   0.0348   0.1387   1.1911
  -9.000   0.3382   0.00866   0.00382  -0.2757  0.7524  0.0198  -3.3531   0.0096   0.0355   0.1407   1.0971
  -8.750   0.3730   0.00850   0.00368  -0.2773  0.7510  0.0224  -3.1113   0.0097   0.0362   0.1426   1.0215
  -8.500   0.4069   0.00839   0.00357  -0.2786  0.7493  0.0249  -2.8752   0.0098   0.0367   0.1443   0.9598
  -8.250   0.4407   0.00827   0.00346  -0.2798  0.7472  0.0271  -2.6449   0.0099   0.0373   0.1459   0.9077
  -8.000   0.4736   0.00819   0.00337  -0.2809  0.7448  0.0291  -2.4226   0.0100   0.0378   0.1474   0.8637
  -7.750   0.5053   0.00815   0.00331  -0.2817  0.7421  0.0302  -2.2098   0.0101   0.0381   0.1485   0.8262
  -7.500   0.5382   0.00807   0.00322  -0.2828  0.7392  0.0326  -2.0020   0.0102   0.0386   0.1499   0.7926
  -7.250   0.5704   0.00801   0.00315  -0.2837  0.7362  0.0346  -1.8019   0.0103   0.0390   0.1512   0.7631
  -7.000   0.6037   0.00792   0.00306  -0.2849  0.7347  0.0360  -1.6451   0.0104   0.0395   0.1526   0.7362
  -6.750   0.6374   0.00781   0.00297  -0.2861  0.7324  0.0393  -1.6378   0.0105   0.0400   0.1541   0.7121
  -6.250   0.7033   0.00765   0.00289  -0.2883  0.7261  0.0545  -1.6526   0.0107   0.0409   0.1568   0.6712
  -6.000   0.7329   0.00766   0.00290  -0.2886  0.7214  0.0586  -1.6552   0.0107   0.0411   0.1574   0.6542
  -5.750   0.7628   0.00766   0.00289  -0.2890  0.7168  0.0632  -1.6572   0.0107   0.0413   0.1581   0.6385
  -5.500   0.7925   0.00766   0.00290  -0.2893  0.7108  0.0671  -1.6598   0.0108   0.0414   0.1586   0.6239
  -5.250   0.8164   0.00779   0.00298  -0.2884  0.6990  0.0688  -1.6509   0.0107   0.0411   0.1580   0.6114
  -5.000   0.8380   0.00794   0.00305  -0.2869  0.6808  0.0704  -1.6361   0.0106   0.0407   0.1570   0.6000
  -4.750   0.8239   0.00849   0.00340  -0.2778  0.6368  0.0712  -1.5616   0.0098   0.0378   0.1488   0.5943
  -4.500   0.8381   0.00887   0.00369  -0.2749  0.6190  0.0733  -1.5284   0.0096   0.0371   0.1464   0.5845
  -4.250   0.8599   0.00915   0.00394  -0.2737  0.6086  0.0754  -1.5099   0.0096   0.0369   0.1455   0.5742
  -4.000   0.8856   0.00932   0.00409  -0.2732  0.5957  0.0776  -1.5012   0.0096   0.0370   0.1453   0.5638
  -3.750   0.8822   0.01054   0.00498  -0.2670  0.5246  0.0787  -1.4086   0.0093   0.0358   0.1402   0.5574
  -3.500   0.9025   0.01095   0.00530  -0.2655  0.5094  0.0802  -1.3827   0.0093   0.0357   0.1392   0.5484
  -3.000   0.9522   0.01144   0.00575  -0.2643  0.4939  0.0907  -1.3546   0.0094   0.0358   0.1388   0.5308
  -2.750   0.9831   0.01150   0.00592  -0.2651  0.4880  0.1407  -1.3512   0.0095   0.0364   0.1399   0.5224
  -2.500   1.0021   0.01204   0.00641  -0.2636  0.4507  0.1863  -1.3116   0.0095   0.0366   0.1391   0.5153
  -2.250   1.0220   0.01253   0.00683  -0.2621  0.4320  0.2022  -1.2791   0.0096   0.0366   0.1383   0.5083
  -2.000   1.0520   0.01271   0.00718  -0.2629  0.4197  0.3067  -1.2653   0.0097   0.0375   0.1396   0.5013
  -1.750   1.0630   0.01361   0.00789  -0.2598  0.3676  0.3244  -1.2004   0.0097   0.0374   0.1375   0.4953
  -1.500   1.0824   0.01412   0.00834  -0.2581  0.3529  0.3311  -1.1879   0.0097   0.0375   0.1366   0.4890
  -1.250   1.1031   0.01459   0.00877  -0.2568  0.3391  0.3429  -1.2061   0.0098   0.0377   0.1360   0.4829
  -0.750   1.1368   0.01592   0.00987  -0.2528  0.2785  0.3627  -1.2389   0.0098   0.0381   0.1339   0.4716
  -0.500   1.1610   0.01627   0.01026  -0.2522  0.2702  0.3860  -1.2790   0.0099   0.0385   0.1340   0.4660
  -0.250   1.1842   0.01664   0.01065  -0.2513  0.2618  0.4273  -1.3186   0.0100   0.0388   0.1338   0.4606
   0.250   1.2218   0.01775   0.01161  -0.2479  0.2276  0.4378  -1.3905   0.0100   0.0393   0.1323   0.4505
   0.500   1.2414   0.01827   0.01208  -0.2463  0.2178  0.4406  -1.4274   0.0101   0.0396   0.1318   0.4456
   0.750   1.2631   0.01870   0.01250  -0.2451  0.2122  0.4442  -1.4664   0.0101   0.0399   0.1315   0.4408
   1.000   1.2844   0.01917   0.01294  -0.2439  0.2049  0.4487  -1.5050   0.0101   0.0403   0.1312   0.4363
   1.250   1.3074   0.01954   0.01331  -0.2430  0.2007  0.4526  -1.5454   0.0102   0.0406   0.1310   0.4318
   1.750   1.3444   0.02078   0.01443  -0.2396  0.1661  0.4667  -1.6449   0.0103   0.0416   0.1300   0.4234
   2.000   1.3657   0.02130   0.01498  -0.2385  0.1598  0.5166  -1.7002   0.0103   0.0422   0.1301   0.4194
   2.250   1.3863   0.02182   0.01553  -0.2371  0.1559  0.5326  -1.7552   0.0104   0.0428   0.1300   0.4154
   2.500   1.4088   0.02227   0.01606  -0.2362  0.1541  0.5727  -1.8130   0.0105   0.0434   0.1301   0.4116
   2.750   1.4309   0.02270   0.01655  -0.2350  0.1535  0.5937  -1.8712   0.0105   0.0439   0.1301   0.4078
   3.000   1.4527   0.02313   0.01701  -0.2339  0.1527  0.6006  -1.9295   0.0105   0.0443   0.1299   0.4042
   3.250   1.4743   0.02357   0.01746  -0.2326  0.1515  0.6044  -1.9881   0.0106   0.0447   0.1298   0.4006
   3.500   1.4955   0.02404   0.01794  -0.2313  0.1497  0.6072  -2.0467   0.0106   0.0451   0.1296   0.3971
   3.750   1.5158   0.02456   0.01845  -0.2299  0.1469  0.6092  -2.1062   0.0106   0.0455   0.1294   0.3936
   4.000   1.5353   0.02512   0.01900  -0.2283  0.1430  0.6106  -2.1680   0.0106   0.0459   0.1291   0.3903
   4.250   1.5549   0.02568   0.01955  -0.2268  0.1390  0.6116  -2.2302   0.0107   0.0464   0.1289   0.3870
   4.500   1.5760   0.02616   0.02005  -0.2255  0.1373  0.6130  -2.2953   0.0107   0.0468   0.1289   0.3838
   4.750   1.5960   0.02671   0.02062  -0.2240  0.1358  0.6148  -2.3599   0.0108   0.0474   0.1289   0.3807
   5.000   1.6149   0.02733   0.02125  -0.2224  0.1320  0.6164  -2.4233   0.0108   0.0480   0.1289   0.3776
   5.250   1.6311   0.02812   0.02199  -0.2204  0.1224  0.6178  -2.4831   0.0108   0.0487   0.1288   0.3746
   5.500   1.6482   0.02885   0.02268  -0.2185  0.1118  0.6197  -2.5749   0.0109   0.0492   0.1288   0.3716
   5.750   1.6609   0.02986   0.02358  -0.2159  0.0964  0.6219  -2.6611   0.0109   0.0499   0.1286   0.3686
   6.000   1.6780   0.03061   0.02430  -0.2141  0.0902  0.6240  -2.7621   0.0109   0.0504   0.1287   0.3657
   6.250   1.6937   0.03145   0.02511  -0.2120  0.0837  0.6254  -2.8611   0.0110   0.0509   0.1287   0.3629
   6.500   1.7119   0.03213   0.02580  -0.2104  0.0803  0.6263  -2.9671   0.0110   0.0514   0.1289   0.3601
   6.750   1.7282   0.03296   0.02662  -0.2084  0.0765  0.6270  -3.0699   0.0110   0.0519   0.1291   0.3574
   7.000   1.7396   0.03413   0.02777  -0.2058  0.0700  0.6276  -3.1620   0.0111   0.0527   0.1296   0.3547
   7.250   1.7555   0.03500   0.02864  -0.2039  0.0657  0.6282  -3.2657   0.0112   0.0532   0.1299   0.3520
   7.500   1.7607   0.03662   0.03012  -0.2005  0.0466  0.6287  -3.3442   0.0112   0.0537   0.1303   0.3493
   7.750   1.7679   0.03814   0.03156  -0.1974  0.0329  0.6291  -3.4276   0.0112   0.0542   0.1307   0.3466
   8.000   1.7803   0.03929   0.03270  -0.1951  0.0277  0.6294  -3.5253   0.0113   0.0545   0.1311   0.3441
   8.250   1.7920   0.04053   0.03394  -0.1928  0.0244  0.6298  -3.6226   0.0113   0.0548   0.1318   0.3415
   8.500   1.8050   0.04173   0.03516  -0.1907  0.0223  0.6309  -3.7239   0.0114   0.0550   0.1326   0.3391
   8.750   1.8163   0.04308   0.03651  -0.1885  0.0189  0.6324  -3.8238   0.0115   0.0552   0.1333   0.3367
   9.000   1.8204   0.04501   0.03842  -0.1854  0.0091  0.6336  -3.9108   0.0115   0.0555   0.1341   0.3343
   9.250   1.8324   0.04633   0.03977  -0.1833  0.0077  0.6351  -3.9922   0.0116   0.0557   0.1347   0.3319
   9.500   1.8440   0.04772   0.04121  -0.1812  0.0074  0.6364  -4.0940   0.0117   0.0560   0.1355   0.3297
   9.750   1.8561   0.04907   0.04260  -0.1792  0.0071  0.6375  -4.1968   0.0117   0.0562   0.1361   0.3274
  10.000   1.8686   0.05038   0.04395  -0.1772  0.0069  0.6384  -4.2986   0.0118   0.0564   0.1367   0.3252
  10.250   1.8792   0.05187   0.04549  -0.1752  0.0066  0.6391  -4.3953   0.0118   0.0567   0.1373   0.3231
  10.500   1.8898   0.05337   0.04704  -0.1731  0.0063  0.6399  -4.5445   0.0119   0.0570   0.1380   0.3209
  10.750   1.9007   0.05486   0.04858  -0.1712  0.0062  0.6411  -4.7068   0.0119   0.0572   0.1386   0.3188
  11.000   1.9104   0.05650   0.05028  -0.1692  0.0061  0.6423  -4.8676   0.0120   0.0575   0.1393   0.3168
  11.250   1.9206   0.05808   0.05191  -0.1672  0.0060  0.6435  -5.0320   0.0121   0.0578   0.1399   0.3147
  11.500   1.9298   0.05977   0.05365  -0.1653  0.0059  0.6444  -5.1927   0.0121   0.0580   0.1405   0.3127
  11.750   1.9376   0.06161   0.05555  -0.1632  0.0058  0.6450  -5.3497   0.0122   0.0583   0.1412   0.3108
  12.000   1.9463   0.06335   0.05735  -0.1613  0.0057  0.6456  -5.5123   0.0122   0.0586   0.1418   0.3088
  12.250   1.9539   0.06519   0.05925  -0.1593  0.0056  0.6461  -5.6726   0.0123   0.0588   0.1424   0.3069
  12.500   1.9592   0.06731   0.06143  -0.1573  0.0055  0.6465  -5.8248   0.0124   0.0591   0.1432   0.3050
  13.000   1.9710   0.07145   0.06572  -0.1535  0.0053  0.6482  -6.1399   0.0125   0.0597   0.1445   0.3014
  13.250   1.9746   0.07383   0.06817  -0.1516  0.0052  0.6493  -6.2897   0.0125   0.0600   0.1452   0.2997
  13.500   1.9794   0.07608   0.07050  -0.1498  0.0051  0.6504  -6.4457   0.0126   0.0603   0.1459   0.2980
  13.750   1.9810   0.07873   0.07323  -0.1480  0.0050  0.6515  -6.5871   0.0127   0.0606   0.1467   0.2964
  14.000   1.9827   0.08136   0.07595  -0.1462  0.0049  0.6526  -6.7285   0.0127   0.0609   0.1474   0.2948
  14.250   1.9827   0.08421   0.07889  -0.1446  0.0048  0.6537  -6.8601   0.0128   0.0613   0.1482   0.2933
  14.500   1.9808   0.08734   0.08211  -0.1430  0.0047  0.6547  -6.9802   0.0129   0.0616   0.1490   0.2919
  14.750   1.9766   0.09082   0.08571  -0.1416  0.0046  0.6557  -7.0841   0.0130   0.0620   0.1499   0.2907
  15.000   1.9699   0.09467   0.08968  -0.1403  0.0045  0.6567  -7.1792   0.0131   0.0624   0.1509   0.2896
  15.250   1.9687   0.09794   0.09303  -0.1394  0.0045  0.6579  -7.3194   0.0131   0.0628   0.1518   0.2885
  15.500   1.9692   0.10097   0.09615  -0.1385  0.0045  0.6593  -7.4728   0.0132   0.0631   0.1526   0.2874
  15.750   1.9677   0.10433   0.09959  -0.1379  0.0044  0.6609  -7.6142   0.0133   0.0635   0.1535   0.2864
  16.000   1.9671   0.10752   0.10286  -0.1373  0.0044  0.6623  -7.7620   0.0134   0.0638   0.1543   0.2854
  16.750   1.9579   0.11846   0.11407  -0.1370  0.0043  0.6692  -8.1547   0.0136   0.0650   0.1571   0.2834
  17.000   1.9535   0.12239   0.11809  -0.1373  0.0042  0.6715  -8.2737   0.0137   0.0655   0.1581   0.2829
  17.250   1.9478   0.12654   0.12233  -0.1378  0.0042  0.6736  -8.3821   0.0138   0.0659   0.1592   0.2827
  17.500   1.9409   0.13093   0.12682  -0.1387  0.0041  0.6753  -8.4788   0.0139   0.0664   0.1603   0.2826
  17.750   1.9334   0.13545   0.13144  -0.1398  0.0041  0.6767  -8.5680   0.0140   0.0669   0.1615   0.2827
  18.000   1.9249   0.14015   0.13624  -0.1413  0.0040  0.6779  -8.6468   0.0141   0.0675   0.1627   0.2830
  18.250   1.9153   0.14513   0.14133  -0.1432  0.0040  0.6793  -8.7123   0.0143   0.0680   0.1640   0.2836
  18.500   1.9050   0.15032   0.14663  -0.1454  0.0040  0.6808  -8.7669   0.0144   0.0686   0.1654   0.2844
  18.750   1.8928   0.15592   0.15235  -0.1481  0.0039  0.6822  -8.8007   0.0145   0.0693   0.1669   0.2855
  19.000   1.8792   0.16194   0.15848  -0.1515  0.0039  0.6835  -8.8134   0.0147   0.0700   0.1685   0.2871
  19.250   1.8653   0.16813   0.16478  -0.1552  0.0039  0.6848  -8.8146   0.0148   0.0707   0.1702   0.2889


