xflr5 v6.57

 Calculated polar for: GNEW5BP93B

 1 1 Reynolds number fixed          Mach number fixed         

 xtrf =   0.690 (top)        0.620 (bottom)
 Mach =   0.233     Re =     2.350 e 6     Ncrit =   9.000

  alpha     CL        CD       CDp       Cm    Top Xtr Bot Xtr   Cpmin    Chinge    XCp    
 ------- -------- --------- --------- -------- ------- ------- -------- --------- ---------
 -10.000  -0.4065   0.01280   0.00777  -0.1685  0.6900  0.0067  -7.3963   0.0000   0.0000   0.0000  -0.1899
  -9.500  -0.3407   0.01187   0.00672  -0.1704  0.6900  0.0067  -6.7410   0.0000   0.0000   0.0000  -0.2779
  -8.500  -0.2078   0.01039   0.00507  -0.1742  0.6900  0.0071  -5.5205   0.0000   0.0000   0.0000  -0.6265
  -8.000  -0.1411   0.00982   0.00445  -0.1760  0.6900  0.0077  -4.9554   0.0000   0.0000   0.0000  -1.0497
  -7.500  -0.0741   0.00930   0.00391  -0.1780  0.6900  0.0089  -4.4152   0.0000   0.0000   0.0000  -2.2417
  -7.000  -0.0069   0.00879   0.00342  -0.1801  0.6900  0.0151  -3.9005   0.0000   0.0000   0.0000  -26.9087
  -6.500   0.0597   0.00842   0.00308  -0.1819  0.6900  0.0196  -3.4073   0.0000   0.0000   0.0000   3.3925
  -6.000   0.1259   0.00812   0.00282  -0.1837  0.6900  0.0244  -2.9287   0.0000   0.0000   0.0000   1.7508
  -5.500   0.1918   0.00786   0.00259  -0.1855  0.6900  0.0286  -2.4703   0.0000   0.0000   0.0000   1.2415
  -5.000   0.2577   0.00762   0.00236  -0.1872  0.6900  0.0324  -2.0389   0.0000   0.0000   0.0000   0.9930
  -4.500   0.3233   0.00742   0.00217  -0.1889  0.6900  0.0358  -1.6957   0.0000   0.0000   0.0000   0.8462
  -4.000   0.3882   0.00725   0.00201  -0.1906  0.6735  0.0464  -1.4208   0.0000   0.0000   0.0000   0.7495
  -3.500   0.4488   0.00745   0.00203  -0.1914  0.6206  0.0590  -1.1670   0.0000   0.0000   0.0000   0.6827
  -3.000   0.5114   0.00750   0.00205  -0.1925  0.6050  0.0665  -0.9223   0.0000   0.0000   0.0000   0.6310
  -2.500   0.5681   0.00803   0.00223  -0.1926  0.5199  0.0706  -0.8836   0.0000   0.0000   0.0000   0.5923
  -2.000   0.6299   0.00811   0.00225  -0.1937  0.5018  0.0755  -0.9209   0.0000   0.0000   0.0000   0.5595
  -1.500   0.6915   0.00818   0.00227  -0.1947  0.4887  0.0793  -0.9583   0.0000   0.0000   0.0000   0.5324
  -1.000   0.7500   0.00848   0.00243  -0.1952  0.4355  0.1114  -0.9950   0.0000   0.0000   0.0000   0.5103
  -0.500   0.8081   0.00878   0.00270  -0.1959  0.3742  0.2010  -1.0376   0.0000   0.0000   0.0000   0.4916
   0.000   0.8689   0.00885   0.00293  -0.1971  0.3485  0.3269  -1.0683   0.0000   0.0000   0.0000   0.4752
   0.500   0.9209   0.00946   0.00330  -0.1963  0.2836  0.3512  -1.1384   0.0000   0.0000   0.0000   0.4608
   1.000   0.9789   0.00966   0.00358  -0.1967  0.2649  0.4246  -1.2241   0.0000   0.0000   0.0000   0.4478
   1.500   1.0310   0.01017   0.00392  -0.1957  0.2294  0.4353  -1.3061   0.0000   0.0000   0.0000   0.4361
   2.000   1.0852   0.01052   0.00421  -0.1952  0.2132  0.4433  -1.3909   0.0000   0.0000   0.0000   0.4254
   3.000   1.1877   0.01136   0.00501  -0.1931  0.1675  0.5236  -1.5877   0.0000   0.0000   0.0000   0.4067
   3.500   1.2366   0.01178   0.00553  -0.1916  0.1568  0.5962  -1.7038   0.0000   0.0000   0.0000   0.3983
   4.000   1.2849   0.01217   0.00594  -0.1897  0.1550  0.6059  -1.8222   0.0000   0.0000   0.0000   0.3903
   4.500   1.3264   0.01260   0.00642  -0.1865  0.1530  0.6122  -1.9348   0.0000   0.0000   0.0000   0.3825
   5.000   1.3688   0.01321   0.00704  -0.1836  0.1486  0.6156  -2.0527   0.0000   0.0000   0.0000   0.3753
   5.500   1.4092   0.01399   0.00781  -0.1804  0.1405  0.6183  -2.1761   0.0000   0.0000   0.0000   0.3685
   6.000   1.4542   0.01461   0.00847  -0.1782  0.1376  0.6200  -2.3087   0.0000   0.0000   0.0000   0.3622
   6.500   1.4923   0.01561   0.00941  -0.1750  0.1241  0.6200  -2.4338   0.0000   0.0000   0.0000   0.3561
   7.500   1.5556   0.01859   0.01219  -0.1672  0.0865  0.6200  -2.8060   0.0000   0.0000   0.0000   0.3446
   8.000   1.5923   0.01992   0.01353  -0.1642  0.0793  0.6200  -3.0157   0.0000   0.0000   0.0000   0.3394
   8.500   1.6237   0.02160   0.01518  -0.1607  0.0685  0.6200  -3.2168   0.0000   0.0000   0.0000   0.3343
   9.000   1.6349   0.02459   0.01796  -0.1545  0.0363  0.6200  -3.3715   0.0000   0.0000   0.0000   0.3290
   9.500   1.6601   0.02676   0.02012  -0.1504  0.0267  0.6200  -3.5640   0.0000   0.0000   0.0000   0.3241
  10.000   1.6876   0.02884   0.02222  -0.1468  0.0214  0.6200  -3.7676   0.0000   0.0000   0.0000   0.3195
  10.500   1.7041   0.03178   0.02513  -0.1420  0.0085  0.6200  -3.9331   0.0000   0.0000   0.0000   0.3149
  11.000   1.7298   0.03414   0.02757  -0.1385  0.0078  0.6200  -4.1385   0.0000   0.0000   0.0000   0.3106
  11.500   1.7555   0.03657   0.03008  -0.1351  0.0072  0.6200  -4.3401   0.0000   0.0000   0.0000   0.3065
  12.000   1.7793   0.03923   0.03283  -0.1318  0.0067  0.6200  -4.6356   0.0000   0.0000   0.0000   0.3025
  12.500   1.8017   0.04206   0.03575  -0.1284  0.0065  0.6200  -4.9641   0.0000   0.0000   0.0000   0.2987
  13.000   1.8217   0.04520   0.03900  -0.1251  0.0063  0.6200  -5.2874   0.0000   0.0000   0.0000   0.2950
  13.500   1.8405   0.04852   0.04244  -0.1219  0.0061  0.6200  -5.6132   0.0000   0.0000   0.0000   0.2914
  14.000   1.8561   0.05219   0.04623  -0.1187  0.0058  0.6200  -5.9334   0.0000   0.0000   0.0000   0.2880
  14.500   1.8677   0.05640   0.05057  -0.1155  0.0057  0.6200  -6.2428   0.0000   0.0000   0.0000   0.2847
  15.000   1.8761   0.06108   0.05540  -0.1126  0.0055  0.6200  -6.5421   0.0000   0.0000   0.0000   0.2816
  15.500   1.8798   0.06640   0.06089  -0.1098  0.0053  0.6200  -6.8169   0.0000   0.0000   0.0000   0.2788
  16.000   1.8756   0.07284   0.06752  -0.1074  0.0051  0.6200  -7.0436   0.0000   0.0000   0.0000   0.2764
  16.500   1.8663   0.08020   0.07510  -0.1057  0.0049  0.6200  -7.2569   0.0000   0.0000   0.0000   0.2744
  17.000   1.8648   0.08679   0.08184  -0.1046  0.0049  0.6200  -7.5403   0.0000   0.0000   0.0000   0.2726
  17.500   1.8577   0.09430   0.08952  -0.1042  0.0048  0.6200  -7.7900   0.0000   0.0000   0.0000   0.2712
  18.000   1.8478   0.10241   0.09781  -0.1045  0.0047  0.6200  -8.0180   0.0000   0.0000   0.0000   0.2703
  18.500   1.8327   0.11140   0.10699  -0.1057  0.0046  0.6200  -8.2042   0.0000   0.0000   0.0000   0.2700
  19.000   1.8101   0.12173   0.11753  -0.1081  0.0045  0.6200  -8.3254   0.0000   0.0000   0.0000   0.2706
  19.500   1.7833   0.13318   0.12920  -0.1121  0.0045  0.6200  -8.3936   0.0000   0.0000   0.0000   0.2724
  20.000   1.7502   0.14620   0.14244  -0.1180  0.0044  0.6200  -8.3822   0.0000   0.0000   0.0000   0.2756
  20.500   1.7127   0.16050   0.15697  -0.1259  0.0044  0.6200  -8.2938   0.0000   0.0000   0.0000   0.2803
  21.000   1.6713   0.17625   0.17296  -0.1358  0.0044  0.6200  -8.1210   0.0000   0.0000   0.0000   0.2867
  21.500   1.6338   0.19199   0.18890  -0.1466  0.0044  0.6200  -7.9323   0.0000   0.0000   0.0000   0.2940
  22.000   1.5982   0.20806   0.20516  -0.1584  0.0044  0.6200  -7.7015   0.0000   0.0000   0.0000   0.3022
  22.500   1.5756   0.22194   0.21919  -0.1691  0.0044  0.6200  -7.5689   0.0000   0.0000   0.0000   0.3091
  23.000   1.5611   0.23443   0.23179  -0.1790  0.0043  0.6200  -7.4953   0.0000   0.0000   0.0000   0.3151
  23.500   1.5519   0.24594   0.24342  -0.1883  0.0042  0.6200  -7.4561   0.0000   0.0000   0.0000   0.3204
  24.000   1.5458   0.25691   0.25449  -0.1974  0.0042  0.6200  -7.4301   0.0000   0.0000   0.0000   0.3253
  24.500   1.5419   0.26752   0.26519  -0.2063  0.0041  0.6200  -7.4107   0.0000   0.0000   0.0000   0.3299
  25.000   1.5445   0.27629   0.27403  -0.2139  0.0039  0.6200  -7.4872   0.0000   0.0000   0.0000   0.3331
  25.500   1.5449   0.28587   0.28368  -0.2223  0.0038  0.6200  -7.5063   0.0000   0.0000   0.0000   0.3369
  26.000   1.5505   0.29376   0.29163  -0.2294  0.0037  0.6200  -7.6139   0.0000   0.0000   0.0000   0.3392
  26.500   1.5547   0.30318   0.30149  -0.2382  0.0035  0.8205  -7.6452   0.0000   0.0000   0.0000   0.3428
  27.000   1.5609   0.31090   0.30927  -0.2454  0.0034  0.8242  -7.7371   0.0000   0.0000   0.0000   0.3451
  27.500   1.5657   0.31911   0.31754  -0.2532  0.0032  0.8280  -7.7713   0.0000   0.0000   0.0000   0.3478
  100.500   1.5657   0.31911   0.31754  -0.2532  0.0032  0.8280  -7.7713   0.0000   0.0000   0.0000   0.3478




